3
Coordinates from ORCA-job water_opt E -76.322282695198
  O       0.000000      0.000000      0.062600
  H      -0.792000      0.000000     -0.497300
  H       0.792000      0.000000     -0.497300
3
Coordinates from ORCA-job water_opt E -76.323069750284
  O       0.000000      0.000000      0.071604
  H      -0.768931      0.000000     -0.501802
  H       0.768931      0.000000     -0.501802
3
Coordinates from ORCA-job water_opt E -76.323289816259
  O      -0.000000      0.000000      0.083331
  H      -0.756399      0.000000     -0.507665
  H       0.756399      0.000000     -0.507665
3
Coordinates from ORCA-job water_opt E -76.323310617010
  O       0.000000      0.000000      0.087268
  H      -0.754821      0.000000     -0.509634
  H       0.754821      0.000000     -0.509634
3
Coordinates from ORCA-job water_opt E -76.323311006033
  O      -0.000000      0.000000      0.087348
  H      -0.755180      0.000000     -0.509674
  H       0.755180      0.000000     -0.509674
3
Coordinates from ORCA-job water_opt E -76.323311011349
  O      -0.000000      0.000000      0.087341
  H      -0.755205      0.000000     -0.509670
  H       0.755205      0.000000     -0.509670
