45
udc3_mCF3_c8_ts_ircr_dias_p7_f1.log    Empirical formula: C20H10F12O3    Energy(Hartree): -2189.627226
O        -0.064079       -1.472230       -0.085768
O         1.273845       -3.303622       -0.097138
O        -1.324320       -3.122045       -0.954841
C         1.137596       -2.116195       -0.088806
C        -1.251531       -2.117725       -0.314278
C        -2.392442       -1.338521        0.218540
C        -2.254066       -0.328711        1.172363
C        -3.636163       -1.621241       -0.328984
C        -3.358803        0.443048        1.512787
H        -1.283954       -0.149208        1.635274
C        -4.725942       -0.822718       -0.011851
H        -3.730700       -2.442877       -1.037650
C        -4.598662        0.241456        0.893837
H        -3.255359        1.247450        2.242391
C         2.233177       -1.119940        0.018213
C         3.521604       -1.586303        0.273333
C         1.984731        0.250308       -0.085944
C         4.560389       -0.677997        0.434291
H         3.696616       -2.659699        0.358040
C         3.030631        1.149310        0.069737
H         0.974908        0.606619       -0.284120
C         4.328337        0.704360        0.336838
H         2.843914        2.220363       -0.016509
C         5.426802        1.729855        0.470363
H         5.086683        2.570363        1.090946
H         6.336625        1.325941        0.926076
C         5.816402        2.313487       -0.871742
C        -5.722675        1.212522        1.164278
H        -6.698963        0.830118        0.847366
H        -5.785273        1.439695        2.237616
C        -5.509162        2.538685        0.458969
F         4.804758        2.997369       -1.420160
F         6.173676        1.372459       -1.739413
F         6.837397        3.156919       -0.732262
F        -6.558754        3.338770        0.644719
F        -4.433066        3.177061        0.935275
F        -5.333237        2.394487       -0.850868
C        -6.029798       -1.106664       -0.710555
C         5.942814       -1.201082        0.740276
F        -6.444879       -0.049547       -1.412248
F        -5.922326       -2.129225       -1.555066
F        -7.001762       -1.405957        0.157829
F         6.834219       -0.782870       -0.160943
F         6.367293       -0.771504        1.933719
F         5.978071       -2.529206        0.754149
