45
udc3_mCF3_c8_ts_ircr_dias_p7_f2.log    Empirical formula: C20H10F12O3    Energy(Hartree): -2189.623899
O         0.295945        1.663960       -0.909602
O        -1.224002        3.297676       -0.540080
O         1.326515        3.418562       -1.929999
C        -0.945673        2.140129       -0.667359
C         1.400233        2.452588       -1.243793
C         2.643578        1.806186       -0.734500
C         2.630665        1.009062        0.413948
C         3.823938        1.975925       -1.454532
C         3.783153        0.326895        0.791094
H         1.717531        0.931514        1.006094
C         4.967197        1.274477       -1.079921
H         3.827110        2.628624       -2.328915
C         4.958996        0.416491        0.022725
H         5.878325        1.367945       -1.672581
C        -1.956639        1.063756       -0.488500
C        -3.057372        1.380648        0.309973
C        -1.854941       -0.192542       -1.076305
C        -4.043731        0.435105        0.547617
H        -3.123461        2.372812        0.757239
C        -2.875260       -1.119692       -0.877716
H        -0.987333       -0.439114       -1.689041
C        -3.969522       -0.832742       -0.057131
H        -2.818111       -2.097986       -1.356941
C         6.184080       -0.424415        0.300887
H         7.095809        0.175683        0.174471
H         6.197717       -0.839692        1.313999
C         6.305821       -1.589938       -0.663183
C        -5.040686       -1.880397        0.120056
H        -4.586045       -2.874584        0.227678
H        -5.668105       -1.704301        1.000610
C        -5.958373       -1.955404       -1.082543
F        -5.290130       -2.327407       -2.180139
F        -6.534086       -0.786323       -1.347094
F        -6.921788       -2.851982       -0.877886
F         6.481471       -1.167476       -1.920749
F         5.228347       -2.368977       -0.655924
F         7.358008       -2.346379       -0.349346
C         3.751098       -0.541617        2.028178
C        -5.147387        0.766383        1.525861
F         4.668503       -0.155935        2.925419
F         2.569108       -0.508178        2.633603
F         4.017860       -1.817501        1.734850
F        -5.073846        2.025516        1.956776
F        -5.066093       -0.022695        2.606601
F        -6.361370        0.590906        1.006744
