90
udc3_mCF3_c8_ts_ircr_dias_p7.log    Empirical formula: C20H10F12O3    Energy(Hartree): -4379.280627
O        -0.138239        1.504304       -0.656976
O         0.411091       -0.692700       -0.781787
O        -2.101025        0.404866       -0.720918
C         0.686062        0.458395       -0.949082
C        -1.462213        1.339280       -0.342677
O        -1.593096       -1.441938        1.474347
O        -0.631903        0.574731        1.827851
O        -3.444221       -0.161702        1.815294
C        -0.584284       -0.621542        1.843510
C        -2.901166       -1.026851        1.210291
C        -3.509512       -1.925026        0.187395
C        -2.727219       -2.552760       -0.786502
C        -4.880347       -2.165829        0.245131
C        -3.311252       -3.475393       -1.648749
H        -1.666035       -2.311111       -0.863706
C        -5.452224       -3.104664       -0.609825
H        -5.483825       -1.642323        0.988316
C        -4.677476       -3.797036       -1.543860
H        -6.516642       -3.330612       -0.531729
C        -1.985674        2.513755        0.391712
C        -1.167808        3.444124        1.035259
C        -3.362145        2.690078        0.363568
C        -1.736621        4.588721        1.581420
H        -0.093793        3.270360        1.097885
C        -3.918253        3.852725        0.878181
H        -3.986062        1.929642       -0.104082
C        -3.110678        4.835228        1.471014
H        -1.102605        5.330894        2.068543
C         0.657568       -1.354618        2.208233
C         1.856167       -0.661585        2.027515
C         0.665639       -2.649486        2.715573
C         3.066705       -1.269668        2.324606
H         1.829993        0.355244        1.634856
C         1.880799       -3.235189        3.062611
H        -0.272257       -3.190790        2.843343
C         3.093136       -2.570014        2.860389
H         1.895390       -4.239959        3.487115
C         1.998979        0.976659       -1.409437
C         3.055789        0.075484       -1.526313
C         2.193769        2.333501       -1.676257
C         4.311658        0.536183       -1.901217
H         2.887482       -0.979924       -1.307747
C         3.450692        2.782662       -2.056712
H         1.363144        3.031369       -1.581298
C         4.527142        1.898438       -2.169701
H         3.607541        3.840201       -2.272272
C         5.862344        2.444006       -2.612065
H         6.083572        3.380126       -2.081031
H         6.690309        1.752101       -2.426758
C         5.872748        2.772894       -4.090369
C        -5.321863       -4.902348       -2.349080
H        -6.316864       -4.591406       -2.696409
H        -4.736992       -5.187810       -3.229689
C        -5.533341       -6.158665       -1.524676
C        -3.657737        6.168182        1.922092
H        -4.747357        6.163513        2.033940
H        -3.223779        6.454736        2.890156
C        -3.310483        7.281906        0.952148
C         4.375964       -3.259457        3.254580
H         4.338781       -4.320937        2.974283
H         5.259763       -2.820442        2.778969
C         4.599543       -3.217975        4.752015
F         3.637468       -3.879944        5.404594
F         4.612882       -1.974252        5.222292
F         5.761157       -3.789261        5.065371
F         5.013023        3.757611       -4.378616
F         5.538178        1.725119       -4.836201
F         7.083728        3.179107       -4.466909
F        -6.392591       -5.945614       -0.521134
F        -4.403566       -6.609018       -0.987373
F        -6.041662       -7.132164       -2.280787
F        -3.882026        8.424515        1.331709
F        -1.989444        7.494155        0.905459
F        -3.710586        7.018200       -0.287929
C        -5.405239        4.042971        0.731436
C        -2.450566       -4.156064       -2.688761
C         4.347727       -0.541675        1.987308
C         5.450551       -0.450175       -1.992667
F        -5.687037        5.142750        0.029128
F        -5.973101        3.014233        0.107248
F        -6.007274        4.171910        1.918580
F        -2.907982       -3.935291       -3.928701
F        -1.191596       -3.733690       -2.651961
F        -2.436404       -5.481123       -2.518167
F         4.119277        0.690394        1.533076
F         5.017428       -1.195047        1.027173
F         5.167853       -0.437937        3.031655
F         6.009432       -0.440468       -3.204796
F         6.417299       -0.152397       -1.117593
F         5.050890       -1.692720       -1.744273
