45
udc3_mCF3_c8_ts_ircr_dias_p0_f1.log    Empirical formula: C20H10F12O3    Energy(Hartree): -2189.588771
O         0.100162       -1.549277        0.187032
O        -1.321979       -3.307072        0.164941
O         1.396154       -3.348239        0.695372
C        -1.129269       -2.123569        0.171860
C         1.237720       -2.337835       -0.060320
C         2.396912       -1.424912       -0.355050
C         2.271624       -0.369018       -1.257402
C         3.601390       -1.639271        0.304816
C         3.358325        0.460994       -1.501821
H         1.324856       -0.207440       -1.774804
C         4.685433       -0.798026        0.061820
H         3.689998       -2.467772        1.005698
C         4.580530        0.263443       -0.848563
H         3.264006        1.286155       -2.209045
C        -2.211634       -1.106047        0.051786
C        -3.503504       -1.572082       -0.203701
C        -1.962133        0.265770        0.115519
C        -4.542500       -0.669160       -0.396733
H        -3.680064       -2.646893       -0.261643
C        -3.009786        1.161761       -0.068580
H        -0.950834        0.624757        0.306866
C        -4.309417        0.715330       -0.328639
H        -2.821264        2.234491       -0.009070
C        -5.410539        1.736574       -0.488819
H        -5.068372        2.566566       -1.122320
H        -6.314815        1.320953       -0.945049
C        -5.815207        2.346407        0.837847
C         5.717234        1.218999       -1.125850
H         6.686486        0.837529       -0.788159
H         5.794086        1.413885       -2.204547
C         5.507129        2.563080       -0.461284
F        -4.809957        3.044871        1.378744
F        -6.177678        1.423475        1.722551
F        -6.838064        3.183681        0.673239
F         6.558359        3.356492       -0.666150
F         4.433259        3.190410       -0.958150
F         5.327632        2.452375        0.850979
C         5.988157       -1.066478        0.777724
C        -5.926325       -1.197388       -0.699774
F         6.409903        0.002959        1.457249
F         5.884520       -2.072585        1.640822
F         6.961674       -1.381084       -0.086439
F        -6.822367       -0.761790        0.188444
F        -6.347732       -0.790635       -1.903105
F        -5.964395       -2.525607       -0.689930
