45
udc3_mCF3_monomer_c7_r2.log    Empirical formula: C20H10F12O3    Energy(Hartree): -2189.631875
O         0.030622        1.842517        0.156533
O        -0.890283        3.538959       -1.016836
O         1.187571        3.649007        0.864290
C        -1.022834        2.526032       -0.409115
C         1.176139        2.506130        0.537576
C        -2.312421        1.805056       -0.212838
C        -3.450153        2.332800       -0.826141
C        -2.410393        0.646393        0.558114
C        -4.676539        1.699874       -0.668259
H        -3.353611        3.241810       -1.421345
C        -3.642619        0.016619        0.710465
H        -1.525724        0.235989        1.042289
C        -4.795342        0.535187        0.098354
H        -5.565103        2.108162       -1.151727
C         2.358979        1.599436        0.541656
C         3.574205        2.119940        0.990487
C         2.283904        0.273007        0.115657
C         4.705741        1.314352        1.009984
H         3.612439        3.159166        1.319735
C         3.422710       -0.527534        0.135606
H         1.337434       -0.135562       -0.234735
C         4.651897       -0.017846        0.584866
H         5.656841        1.721863        1.355421
C        -6.145836       -0.132801        0.202927
H        -6.928520        0.620300        0.369015
H        -6.201756       -0.857166        1.022197
C         5.921086       -0.836495        0.591695
H         6.476640       -0.665378        1.524127
H         5.735936       -1.912413        0.507760
C         6.851583       -0.450119       -0.539935
C        -6.516512       -0.864056       -1.071276
F        -6.650104       -0.015742       -2.097311
F        -7.679255       -1.497331       -0.924372
F        -5.600286       -1.763003       -1.416625
F         6.261213       -0.543268       -1.726994
F         7.924961       -1.239264       -0.551132
F         7.282851        0.809411       -0.406223
C         3.307018       -1.967394       -0.308872
C        -3.724231       -1.222834        1.571323
F        -4.234003       -2.258165        0.903214
F        -2.529511       -1.588402        2.028308
F        -4.512202       -1.021670        2.635027
F         3.584179       -2.806788        0.696981
F         2.082097       -2.256598       -0.738939
F         4.158266       -2.251971       -1.295077
