3
 energy: -10.308452289174 gnorm: 0.000000274756 xtb: 6.7.1 (edcfbbe)
O           -1.14365140482700        0.00000000000000        0.00000000000000
O            1.14365140482700        0.00000000000000        0.00000000000000
C           -0.00000000000000       -0.00000000000000       -0.00000000000000
