45
udc3_mCF3_c8_ts_ircr_dias_p0_f2.log    Empirical formula: C20H10F12O3    Energy(Hartree): -2189.575836
O         0.257137        1.626831       -1.011148
O        -1.130519        3.260536       -0.384007
O         1.409071        3.408220       -2.094046
C        -0.881329        2.052387       -0.679172
C         1.513004        2.677199       -1.172009
C         2.688323        1.866557       -0.740639
C         2.662782        1.092263        0.418873
C         3.825241        1.909822       -1.539631
C         3.783793        0.348350        0.767285
H         1.768526        1.088929        1.043993
C         4.945596        1.164481       -1.178643
H         3.823029        2.528032       -2.438421
C         4.944332        0.373185       -0.028663
H         5.838617        1.189695       -1.804673
C        -1.990021        1.075021       -0.566205
C        -3.091234        1.416160        0.220682
C        -1.884585       -0.202839       -1.112316
C        -4.069627        0.470271        0.493101
H        -3.159131        2.414826        0.651635
C        -2.890530       -1.132784       -0.868838
H        -1.010280       -0.463808       -1.709566
C        -3.983602       -0.822995       -0.052663
H        -2.821214       -2.131333       -1.302293
C         6.171335       -0.448056        0.292081
H         7.079561        0.150457        0.136337
H         6.185688       -0.808770        1.325861
C         6.297728       -1.658930       -0.608208
C        -5.039060       -1.875825        0.184912
H        -4.568874       -2.856539        0.339392
H        -5.662973       -1.663335        1.059800
C        -5.963029       -2.022460       -1.007311
F        -5.297067       -2.452565       -2.084643
F        -6.542482       -0.870771       -1.332847
F        -6.922716       -2.908305       -0.749731
F         6.474121       -1.300893       -1.885772
F         5.219742       -2.435875       -0.560816
F         7.350178       -2.397122       -0.254786
C         3.746885       -0.468889        2.036905
C        -5.171506        0.832866        1.462052
F         4.663146       -0.042354        2.916697
F         2.563005       -0.404842        2.637371
F         4.010328       -1.757582        1.804494
F        -5.104052        2.110018        1.835430
F        -5.079261        0.092279        2.574525
F        -6.384434        0.624950        0.953631
