90
udc3_mCF3_c8_ts_ircr_dias_p0.log    Empirical formula: C20H10F12O3    Energy(Hartree): -4379.227445
O        -0.210157        1.417318       -0.672827
O         0.446003       -0.744354       -0.770008
O        -2.110917        0.219345       -0.317525
C         0.664012        0.419547       -0.958876
C        -1.346369        1.141942        0.108348
O        -1.581617       -1.379545        1.487358
O        -0.544002        0.598035        1.466950
O        -3.531246       -0.034123        1.735863
C        -0.580067       -0.647101        1.706067
C        -2.983310       -0.714260        0.940547
C        -3.547412       -1.784877        0.068673
C        -2.765420       -2.458875       -0.868806
C        -4.894906       -2.091705        0.220198
C        -3.341462       -3.455342       -1.647711
H        -1.715137       -2.188192       -0.987617
C        -5.463964       -3.088676       -0.569271
H        -5.487344       -1.546033        0.955908
C        -4.702448       -3.786054       -1.508612
H        -6.519352       -3.338032       -0.450888
C        -1.927193        2.446257        0.583140
C        -1.118270        3.433503        1.145133
C        -3.292205        2.663392        0.435708
C        -1.683803        4.630266        1.566453
H        -0.048079        3.256363        1.261300
C        -3.852353        3.869396        0.852458
H        -3.915770        1.885542       -0.002031
C        -3.055937        4.870116        1.427609
H        -1.053917        5.403292        2.008749
C         0.656408       -1.284207        2.218345
C         1.868076       -0.617840        2.028468
C         0.637784       -2.571761        2.751392
C         3.064218       -1.250753        2.336419
H         1.872504        0.384749        1.601313
C         1.838871       -3.183558        3.096500
H        -0.313534       -3.089803        2.877282
C         3.066012       -2.547910        2.879720
H         1.832019       -4.186551        3.525154
C         1.972833        0.952242       -1.432697
C         3.030959        0.046892       -1.542714
C         2.181068        2.307492       -1.693711
C         4.293995        0.495534       -1.910820
H         2.854727       -1.007163       -1.324405
C         3.445743        2.745827       -2.071505
H         1.354266        3.011433       -1.598438
C         4.518737        1.855896       -2.184103
H         3.610405        3.802425       -2.286722
C         5.860735        2.387610       -2.628387
H         6.088287        3.326721       -2.105340
H         6.681903        1.690521       -2.432549
C         5.882613        2.704083       -4.109961
C        -5.360352       -4.886806       -2.307585
H        -6.351076       -4.562819       -2.655215
H        -4.780064       -5.180591       -3.188481
C        -5.584688       -6.135075       -1.480416
C        -3.610438        6.203939        1.869782
H        -4.700631        6.199333        1.972070
H        -3.186308        6.486931        2.843180
C        -3.254213        7.316873        0.907065
C         4.337679       -3.264983        3.263847
H         4.274262       -4.325701        2.985288
H         5.226002       -2.845288        2.779504
C         4.574078       -3.224455        4.760206
F         3.609671       -3.875904        5.419503
F         4.601909       -1.979459        5.226400
F         5.731780       -3.805437        5.067211
F         5.033570        3.694606       -4.408188
F         5.542840        1.654320       -4.850530
F         7.099132        3.096432       -4.484800
F        -6.441361       -5.908380       -0.477323
F        -4.457713       -6.591231       -0.942094
F        -6.102452       -7.107409       -2.231398
F        -3.816874        8.463643        1.287708
F        -1.931029        7.519047        0.863178
F        -3.655096        7.056239       -0.333045
C        -5.341526        4.070350        0.698657
C        -2.485697       -4.161532       -2.672474
C         4.358620       -0.553524        1.985885
C         5.429580       -0.498989       -1.995675
F        -5.623337        5.170432       -0.003996
F        -5.922130        3.044259        0.083868
F        -5.938346        4.211476        1.889195
F        -2.939161       -3.947993       -3.915161
F        -1.222571       -3.749859       -2.636853
F        -2.482456       -5.484499       -2.488366
F         4.149534        0.677534        1.521280
F         5.010626       -1.229226        1.030433
F         5.182335       -0.456860        3.027550
F         5.989852       -0.500665       -3.207146
F         6.399926       -0.202458       -1.123016
F         5.024948       -1.738362       -1.738891
